#############################################################
#             ______       _    _          _                #
#            (_____ \     \ \  / /        | |               #
#             _____) )   _ \ \/ / |_  ____| |               #
#            |  ____/ | | | )  (|  _)/ _  | |               #
#            | |    | |_| |/ /\ \ |_( (_| | |___            #
#            |_|     \__  /_/  \_\___)__|_|_____)           #
#                   (____/                                  #
#---------------------(version    0.6.3)--------------------#
#       A Python package for random crystal generation      #
#       url: https://github.com/qzhu2017/pyxtal             #
#       @Zhu's group at University of Nevada Las Vegas      #
#############################################################
data_from_pyxtal

_symmetry_space_group_name_H-M 'P1'
_symmetry_Int_Tables_number                    1
_symmetry_cell_setting                 triclinic
_cell_length_a           11.763277
_cell_length_b           10.113775
_cell_length_c            8.917767
_cell_angle_alpha        69.305700
_cell_angle_beta         70.713175
_cell_angle_gamma        84.387065
_cell_volume            936.585820

loop_
 _symmetry_equiv_pos_site_id
 _symmetry_equiv_pos_as_xyz
1 'x, y, z'

loop_
 _atom_site_label
 _atom_site_type_symbol
 _atom_site_symmetry_multiplicity
 _atom_site_fract_x
 _atom_site_fract_y
 _atom_site_fract_z
 _atom_site_occupancy
H      H        1     0.520139    0.373781    0.422128 1
C      C        1     0.555107    0.406918    0.503169 1
C      C        1     0.533431    0.542284    0.511444 1
H      H        1     0.481405    0.615671    0.436915 1
C      C        1     0.577872    0.584383    0.614437 1
H      H        1     0.560817    0.690896    0.620954 1
C      C        1     0.643982    0.491134    0.709147 1
H      H        1     0.678949    0.524271    0.790190 1
C      C        1     0.665661    0.355776    0.700874 1
H      H        1     0.717687    0.282397    0.775408 1
C      C        1     0.621223    0.313668    0.597885 1
H      H        1     0.638283    0.207152    0.591377 1
C      C        1     0.251167    0.736905    0.738167 1
C      C        1     0.338239    0.670937    0.838690 1
C      C        1     0.281964    0.532881    0.978554 1
H      H        1     0.424847    0.651540    0.755799 1
H      H        1     0.358330    0.743992    0.892298 1
C      C        1     0.162861    0.563577    1.097313 1
C      C        1     0.076549    0.630011    0.995670 1
H      H        1     0.123302    0.466946    1.200475 1
H      H        1     0.178014    0.633609    1.158203 1
C      C        1     0.131930    0.768490    0.855879 1
H      H        1     0.070119    0.819272    0.785354 1
H      H        1     0.146212    0.844291    0.909971 1
C      C        1     0.228158    0.634742    0.658410 1
H      H        1     0.290832    0.835072    0.638611 1
C      C        1     0.259089    0.429830    0.899844 1
H      H        1     0.343577    0.485645    1.050315 1
C      C        1     0.172359    0.496843    0.799056 1
H      H        1     0.343468    0.403644    0.818675 1
H      H        1     0.222240    0.329432    0.997446 1
H      H        1     0.155861    0.423925    0.742894 1
C      C        1     0.052780    0.527383    0.917034 1
H      H        1     0.169056    0.681759    0.582325 1
H      H        1     0.311666    0.614326    0.570443 1
H      H        1    -0.011260    0.571376    0.848231 1
H      H        1    -0.008231    0.651997    1.079627 1
H      H        1     0.010121    0.429732    1.015120 1
Na     Na       1     0.835467    0.707320    0.483534 1
Na     Na       1     0.238981    0.112851    0.207424 1
I      I        1     0.830094    0.961502    0.746513 1
I      I        1     0.903278    0.361036    0.435004 1
#END

